Version 4
SHEET 1 880 680
WIRE -384 -288 -512 -288
WIRE -256 -240 -304 -240
WIRE -144 -240 -192 -240
WIRE 160 -224 160 -272
WIRE 288 -224 288 -272
WIRE -384 -176 -384 -288
WIRE -304 -176 -304 -240
WIRE -208 -160 -240 -160
WIRE -512 -128 -512 -288
WIRE -400 -128 -512 -128
WIRE -240 -128 -240 -160
WIRE 160 -128 160 -144
WIRE 224 -128 160 -128
WIRE 288 -128 288 -144
WIRE 288 -128 224 -128
WIRE -400 -112 -400 -128
WIRE -304 -112 -304 -176
WIRE -272 -112 -304 -112
WIRE -144 -96 -144 -240
WIRE -144 -96 -208 -96
WIRE 224 -96 224 -128
WIRE -272 -80 -304 -80
WIRE -400 -16 -400 -32
WIRE -304 -16 -304 -80
WIRE -304 -16 -400 -16
WIRE -240 -16 -240 -64
WIRE -208 -16 -240 -16
WIRE -400 16 -400 -16
FLAG -400 16 0
FLAG -208 -16 Vcc-
FLAG -208 -160 Vcc+
FLAG 224 -96 0
FLAG 160 -272 Vcc+
FLAG 288 -272 Vcc-
SYMBOL voltage -400 -128 R0
WINDOW 123 24 100 Left 2
WINDOW 39 24 72 Left 2
WINDOW 3 24 128 Left 2
SYMATTR SpiceLine Rser=50
SYMATTR Value PULSE(-1 1 0 0.005n 0.005n 25000n 50000n 100)
SYMATTR InstName V1
SYMBOL cap -192 -256 R90
WINDOW 0 0 32 VBottom 2
WINDOW 3 32 32 VTop 2
SYMATTR InstName C1
SYMATTR Value 7n
SYMBOL res -288 -192 R90
WINDOW 0 0 56 VBottom 2
WINDOW 3 39 59 VTop 2
SYMATTR InstName R
SYMATTR Value 14K
SYMBOL voltage 160 -240 R0
WINDOW 123 0 0 Left 2
WINDOW 39 0 0 Left 2
SYMATTR InstName V2
SYMATTR Value 18
SYMBOL voltage 288 -128 R180
WINDOW 0 24 96 Left 2
WINDOW 3 24 16 Left 2
WINDOW 123 0 0 Left 2
WINDOW 39 0 0 Left 2
SYMATTR InstName V3
SYMATTR Value 18
SYMBOL Opamps\\opamp2 -240 -160 R0
SYMATTR InstName U1
SYMATTR Value LM833#0
TEXT -640 128 Left 2 !;ac dec 10 100 100000
TEXT -640 104 Left 2 !.inc "LM833.lib"
TEXT -632 72 Left 2 !.tran 250000n startup
