Version 4
SHEET 1 1060 680
WIRE 240 32 176 32
WIRE 448 32 320 32
WIRE 384 96 384 80
WIRE 16 112 -96 112
WIRE 64 112 16 112
WIRE 176 112 176 32
WIRE 176 112 144 112
WIRE 352 112 176 112
WIRE 448 128 448 32
WIRE 448 128 416 128
WIRE 560 128 448 128
WIRE 352 144 304 144
WIRE 384 192 384 160
WIRE 176 272 176 112
WIRE 304 288 304 144
WIRE 176 416 176 352
FLAG 176 416 0
FLAG -96 192 0
FLAG 384 80 VS
FLAG 16 112 VS
FLAG 304 368 0
FLAG -304 192 0
FLAG -304 112 VS-
FLAG 384 192 VS-
FLAG 560 128 Vout
SYMBOL res 160 96 R90
WINDOW 0 0 56 VBottom 2
WINDOW 3 32 56 VTop 2
SYMATTR InstName R1
SYMATTR Value 10k
SYMBOL res 192 368 R180
WINDOW 0 36 76 Left 2
WINDOW 3 36 40 Left 2
SYMATTR InstName R3
SYMATTR Value 540
SYMBOL res 224 48 R270
WINDOW 0 32 56 VTop 2
WINDOW 3 0 56 VBottom 2
SYMATTR InstName R2
SYMATTR Value 25k
SYMBOL voltage -96 96 R0
WINDOW 123 0 0 Left 2
WINDOW 39 0 0 Left 2
SYMATTR InstName V1
SYMATTR Value 7
SYMBOL voltage 304 272 R0
WINDOW 123 0 0 Left 2
WINDOW 39 0 0 Left 2
SYMATTR InstName Vin
SYMATTR Value PULSE(0.35 0.45 0 1s 0s 0s 1s 100)
SYMBOL voltage -304 208 R180
WINDOW 0 24 96 Left 2
WINDOW 3 24 16 Left 2
WINDOW 123 0 0 Left 2
WINDOW 39 0 0 Left 2
SYMATTR InstName V3
SYMATTR Value 2
SYMBOL Opamps\\opamp2 384 64 R0
SYMATTR InstName U2
SYMATTR Value LM741
TEXT -272 -64 Left 2 !.inc "opamp varios\\LM741.MOD"
TEXT -144 320 Left 2 !.tran 10s
