Version 4
SHEET 1 880 680
WIRE -128 -144 -176 -144
WIRE -256 -80 -256 -144
WIRE -256 -80 -288 -80
WIRE -176 -80 -256 -80
WIRE -176 0 -176 -16
WIRE -176 0 -208 0
WIRE -128 0 -128 -144
WIRE -128 0 -176 0
WIRE 48 0 -48 0
WIRE 144 0 144 -16
WIRE 144 0 48 0
WIRE -208 16 -208 0
WIRE -256 64 -336 64
WIRE -416 80 -496 80
WIRE -336 80 -336 64
WIRE -336 80 -416 80
WIRE -48 80 -48 0
WIRE 48 80 48 0
WIRE 48 80 32 80
WIRE -416 96 -416 80
WIRE -256 96 -256 64
WIRE -208 96 -256 96
WIRE 32 96 32 80
WIRE 224 96 224 -16
WIRE 224 96 192 96
WIRE 256 96 224 96
WIRE 48 112 48 80
WIRE 80 112 48 112
WIRE 624 112 512 112
WIRE 192 128 192 96
WIRE 192 128 144 128
WIRE 624 128 624 112
WIRE 64 144 32 144
WIRE 80 144 64 144
WIRE -416 160 -496 160
WIRE -288 176 -288 -80
WIRE -208 176 -288 176
WIRE 64 176 64 144
WIRE -416 192 -416 160
WIRE -288 192 -288 176
WIRE -288 192 -416 192
FLAG 624 128 0
FLAG 512 32 VCC
FLAG 112 96 VCC
FLAG 112 160 -VCC
FLAG 512 192 -VCC
FLAG -208 176 0
FLAG -48 160 0
FLAG 64 176 0
FLAG 256 176 0
FLAG 256 96 Vout
FLAG -208 0 Vin
SYMBOL Opamps\\opamp2 112 64 R0
SYMATTR InstName U1
SYMATTR Value LM324
SYMBOL voltage 512 16 R0
WINDOW 3 35 51 Left 2
WINDOW 123 0 0 Left 2
WINDOW 39 0 0 Left 2
SYMATTR Value 15
SYMATTR InstName V1
SYMBOL voltage 512 96 R0
WINDOW 0 36 41 Left 2
WINDOW 123 0 0 Left 2
WINDOW 39 0 0 Left 2
SYMATTR InstName V2
SYMATTR Value 15
SYMBOL voltage -208 80 R0
WINDOW 123 -98 33 Left 2
WINDOW 39 0 0 Left 2
SYMATTR Value2 AC 1
SYMATTR Value ""
SYMATTR InstName V3
SYMBOL res -32 -16 R90
WINDOW 0 0 56 VBottom 2
WINDOW 3 32 56 VTop 2
SYMATTR InstName R1
SYMATTR Value {Res1}
SYMBOL res 240 -32 R90
WINDOW 0 0 56 VBottom 2
WINDOW 3 32 56 VTop 2
SYMATTR InstName R2
SYMATTR Value {Res2}
SYMBOL res -32 176 R180
WINDOW 0 36 76 Left 2
WINDOW 3 36 40 Left 2
SYMATTR InstName R3
SYMATTR Value {Res3}
SYMBOL res 272 192 R180
WINDOW 0 36 76 Left 2
WINDOW 3 -76 63 Left 2
SYMATTR InstName R4
SYMATTR Value {Res4}
SYMBOL res -224 0 R0
SYMATTR InstName R5
SYMATTR Value 100k
SYMBOL cap -192 -80 R0
SYMATTR InstName C2
SYMATTR Value 100p
SYMBOL res -160 -160 R90
WINDOW 0 0 56 VBottom 2
WINDOW 3 32 56 VTop 2
SYMATTR InstName R6
SYMATTR Value 1Meg
SYMBOL cap -432 96 R0
SYMATTR InstName C1
SYMATTR Value 100p
SYMBOL res -512 64 R0
SYMATTR InstName R7
SYMATTR Value 1Meg
TEXT -552 -144 Left 2 !;tran 3 startup
TEXT -544 -216 Left 2 !.lib LM324.ti.lib
TEXT -552 -176 Left 2 !.ac dec 100 500 50000000
TEXT -32 -248 Left 2 !.param Res1=5000
TEXT -32 -224 Left 2 !.param Res2=50000
TEXT -32 -200 Left 2 !.param Res3=Res1
TEXT -32 -176 Left 2 !.param Res4=20000
TEXT -248 232 Left 2 !;dc V3 -1.5 2 0.01
