Version 4
SHEET 1 880 680
WIRE -208 32 -208 0
WIRE -80 32 -128 32
WIRE 112 32 -80 32
WIRE -208 96 -208 32
WIRE -80 96 -80 32
WIRE 256 96 256 32
WIRE 224 112 64 112
WIRE 624 112 512 112
WIRE 304 128 288 128
WIRE 624 128 624 112
WIRE 224 144 208 144
WIRE 112 160 112 32
WIRE 208 160 208 144
WIRE 208 160 112 160
WIRE 64 240 64 112
WIRE 80 240 64 240
WIRE 304 240 304 128
WIRE 304 240 160 240
WIRE 256 272 256 160
FLAG 624 128 0
FLAG 512 32 VCC
FLAG 256 32 VCC
FLAG 256 272 -VCC
FLAG 512 192 -VCC
FLAG -208 176 0
FLAG -208 0 Vin
FLAG 64 320 0
FLAG -80 176 0
FLAG 304 128 Vout
SYMBOL Opamps\\opamp2 256 64 R0
SYMATTR InstName U1
SYMATTR Value LM324
SYMBOL voltage 512 16 R0
WINDOW 3 35 51 Left 2
WINDOW 123 0 0 Left 2
WINDOW 39 0 0 Left 2
SYMATTR Value 15
SYMATTR InstName V1
SYMBOL voltage 512 96 R0
WINDOW 0 36 41 Left 2
WINDOW 123 0 0 Left 2
WINDOW 39 0 0 Left 2
SYMATTR InstName V2
SYMATTR Value 15
SYMBOL voltage -208 80 R0
WINDOW 123 -98 33 Left 2
WINDOW 39 0 0 Left 2
SYMATTR Value2 AC 1
SYMATTR Value ""
SYMATTR InstName V3
SYMBOL res 80 336 R180
WINDOW 0 36 76 Left 2
WINDOW 3 36 40 Left 2
SYMATTR InstName R1
SYMATTR Value {Res1}
SYMBOL res 176 224 R90
WINDOW 0 0 56 VBottom 2
WINDOW 3 32 56 VTop 2
SYMATTR InstName R2
SYMATTR Value {Res2}
SYMBOL res -224 48 R270
WINDOW 0 32 56 VTop 2
WINDOW 3 0 56 VBottom 2
SYMATTR InstName R3
SYMATTR Value {Res3}
SYMBOL res -64 192 R180
WINDOW 0 36 76 Left 2
WINDOW 3 -76 63 Left 2
SYMATTR InstName R4
SYMATTR Value {Res4}
TEXT -552 -144 Left 2 !;tran 3 startup
TEXT -544 -216 Left 2 !.lib LM324.ti.lib
TEXT -552 -176 Left 2 !.ac dec 10 1 1000000
TEXT -32 -248 Left 2 !.param Res1=5000
TEXT -32 -224 Left 2 !.param Res2=50000
TEXT -32 -200 Left 2 !.param Res3=Res1
TEXT -32 -176 Left 2 !.param Res4=20000
TEXT -248 232 Left 2 !;dc V3 -1.5 2 0.01
